<routes>
        <vType id="coche_normal" length="5" color="1,1,0" maxSpeed="50" accel="2.6" decel="4.5" sigma="0.2" vClass="passenger"/>
    <vType id="emergencia" length="5" color="1,0,0" maxSpeed="50" accel="2.6" decel="4.5" sigma="0.2" vClass="emergency"/>
    <route id="de_izquierda_a_derecha" edges="izquierda_a_derecha_inicio izquierda_a_derecha_fin" />
    <route id="de_abajo_a_arriba" edges="abajo_a_arriba_inicio abajo_a_arriba_fin" />
    
    <vehicle id="izq_0" type="coche_normal" route="de_izquierda_a_derecha" depart="3" color="1,1,0" />
    <vehicle id="abajo_ambulancia_1" type="emergencia" route="de_abajo_a_arriba" depart="4" color="1,0,0" />
    <vehicle id="abajo_2" type="coche_normal" route="de_abajo_a_arriba" depart="6" color="1,1,0" />
    <vehicle id="izq_3" type="coche_normal" route="de_izquierda_a_derecha" depart="11" color="1,1,0" />
    <vehicle id="izq_4" type="coche_normal" route="de_izquierda_a_derecha" depart="22" color="1,1,0" />
    <vehicle id="abajo_5" type="coche_normal" route="de_abajo_a_arriba" depart="23" color="1,1,0" />
    <vehicle id="izq_6" type="coche_normal" route="de_izquierda_a_derecha" depart="25" color="1,1,0" />
    <vehicle id="izq_7" type="coche_normal" route="de_izquierda_a_derecha" depart="31" color="1,1,0" />
    <vehicle id="abajo_8" type="coche_normal" route="de_abajo_a_arriba" depart="31" color="1,1,0" />
    <vehicle id="abajo_9" type="coche_normal" route="de_abajo_a_arriba" depart="33" color="1,1,0" />
    <vehicle id="izq_10" type="coche_normal" route="de_izquierda_a_derecha" depart="34" color="1,1,0" />
    <vehicle id="izq_11" type="coche_normal" route="de_izquierda_a_derecha" depart="40" color="1,1,0" />
    <vehicle id="izq_12" type="coche_normal" route="de_izquierda_a_derecha" depart="44" color="1,1,0" />
    <vehicle id="izq_13" type="coche_normal" route="de_izquierda_a_derecha" depart="56" color="1,1,0" />
    <vehicle id="abajo_14" type="coche_normal" route="de_abajo_a_arriba" depart="57" color="1,1,0" />
    <vehicle id="izq_15" type="coche_normal" route="de_izquierda_a_derecha" depart="63" color="1,1,0" />
    <vehicle id="izq_16" type="coche_normal" route="de_izquierda_a_derecha" depart="64" color="1,1,0" />
    <vehicle id="izq_ambulancia_17" type="emergencia" route="de_izquierda_a_derecha" depart="67" color="1,0,0" />
    <vehicle id="abajo_18" type="coche_normal" route="de_abajo_a_arriba" depart="72" color="1,1,0" />
    <vehicle id="izq_ambulancia_19" type="emergencia" route="de_izquierda_a_derecha" depart="74" color="1,0,0" />
    <vehicle id="abajo_20" type="coche_normal" route="de_abajo_a_arriba" depart="74" color="1,1,0" />
    <vehicle id="izq_21" type="coche_normal" route="de_izquierda_a_derecha" depart="81" color="1,1,0" />
    <vehicle id="abajo_22" type="coche_normal" route="de_abajo_a_arriba" depart="85" color="1,1,0" />
    <vehicle id="izq_23" type="coche_normal" route="de_izquierda_a_derecha" depart="92" color="1,1,0" />
    <vehicle id="abajo_24" type="coche_normal" route="de_abajo_a_arriba" depart="98" color="1,1,0" />
    <vehicle id="abajo_25" type="coche_normal" route="de_abajo_a_arriba" depart="101" color="1,1,0" />
    <vehicle id="abajo_ambulancia_26" type="emergencia" route="de_abajo_a_arriba" depart="106" color="1,0,0" />
    <vehicle id="izq_27" type="coche_normal" route="de_izquierda_a_derecha" depart="115" color="1,1,0" />
    <vehicle id="izq_ambulancia_28" type="emergencia" route="de_izquierda_a_derecha" depart="120" color="1,0,0" />
    <vehicle id="izq_29" type="coche_normal" route="de_izquierda_a_derecha" depart="126" color="1,1,0" />
    <vehicle id="izq_30" type="coche_normal" route="de_izquierda_a_derecha" depart="127" color="1,1,0" />
    <vehicle id="abajo_31" type="coche_normal" route="de_abajo_a_arriba" depart="129" color="1,1,0" />
    <vehicle id="izq_32" type="coche_normal" route="de_izquierda_a_derecha" depart="132" color="1,1,0" />
    <vehicle id="abajo_33" type="coche_normal" route="de_abajo_a_arriba" depart="149" color="1,1,0" />
    <vehicle id="izq_34" type="coche_normal" route="de_izquierda_a_derecha" depart="150" color="1,1,0" />
    <vehicle id="izq_35" type="coche_normal" route="de_izquierda_a_derecha" depart="152" color="1,1,0" />
    <vehicle id="izq_36" type="coche_normal" route="de_izquierda_a_derecha" depart="164" color="1,1,0" />
    <vehicle id="abajo_37" type="coche_normal" route="de_abajo_a_arriba" depart="164" color="1,1,0" />
    <vehicle id="izq_38" type="coche_normal" route="de_izquierda_a_derecha" depart="171" color="1,1,0" />
    <vehicle id="izq_39" type="coche_normal" route="de_izquierda_a_derecha" depart="179" color="1,1,0" />
    <vehicle id="izq_40" type="coche_normal" route="de_izquierda_a_derecha" depart="180" color="1,1,0" />
    <vehicle id="izq_41" type="coche_normal" route="de_izquierda_a_derecha" depart="182" color="1,1,0" />
    <vehicle id="abajo_42" type="coche_normal" route="de_abajo_a_arriba" depart="206" color="1,1,0" />
    <vehicle id="izq_43" type="coche_normal" route="de_izquierda_a_derecha" depart="213" color="1,1,0" />
    <vehicle id="abajo_44" type="coche_normal" route="de_abajo_a_arriba" depart="214" color="1,1,0" />
    <vehicle id="izq_45" type="coche_normal" route="de_izquierda_a_derecha" depart="216" color="1,1,0" />
    <vehicle id="abajo_46" type="coche_normal" route="de_abajo_a_arriba" depart="220" color="1,1,0" />
    <vehicle id="izq_47" type="coche_normal" route="de_izquierda_a_derecha" depart="227" color="1,1,0" />
    <vehicle id="izq_48" type="coche_normal" route="de_izquierda_a_derecha" depart="239" color="1,1,0" />
    <vehicle id="abajo_49" type="coche_normal" route="de_abajo_a_arriba" depart="241" color="1,1,0" />
    <vehicle id="izq_50" type="coche_normal" route="de_izquierda_a_derecha" depart="245" color="1,1,0" />
    <vehicle id="izq_51" type="coche_normal" route="de_izquierda_a_derecha" depart="250" color="1,1,0" />
    <vehicle id="abajo_52" type="coche_normal" route="de_abajo_a_arriba" depart="254" color="1,1,0" />
    <vehicle id="abajo_53" type="coche_normal" route="de_abajo_a_arriba" depart="256" color="1,1,0" />
    <vehicle id="abajo_54" type="coche_normal" route="de_abajo_a_arriba" depart="258" color="1,1,0" />
    <vehicle id="abajo_55" type="coche_normal" route="de_abajo_a_arriba" depart="265" color="1,1,0" />
    <vehicle id="izq_56" type="coche_normal" route="de_izquierda_a_derecha" depart="266" color="1,1,0" />
    <vehicle id="abajo_57" type="coche_normal" route="de_abajo_a_arriba" depart="273" color="1,1,0" />
    <vehicle id="izq_ambulancia_58" type="emergencia" route="de_izquierda_a_derecha" depart="283" color="1,0,0" />
    <vehicle id="izq_59" type="coche_normal" route="de_izquierda_a_derecha" depart="287" color="1,1,0" />
    <vehicle id="izq_60" type="coche_normal" route="de_izquierda_a_derecha" depart="292" color="1,1,0" />
    <vehicle id="abajo_61" type="coche_normal" route="de_abajo_a_arriba" depart="293" color="1,1,0" />
    <vehicle id="abajo_62" type="coche_normal" route="de_abajo_a_arriba" depart="295" color="1,1,0" />
    <vehicle id="izq_63" type="coche_normal" route="de_izquierda_a_derecha" depart="296" color="1,1,0" />
    <vehicle id="izq_64" type="coche_normal" route="de_izquierda_a_derecha" depart="309" color="1,1,0" />
    <vehicle id="izq_65" type="coche_normal" route="de_izquierda_a_derecha" depart="310" color="1,1,0" />
    <vehicle id="izq_66" type="coche_normal" route="de_izquierda_a_derecha" depart="311" color="1,1,0" />
    <vehicle id="abajo_67" type="coche_normal" route="de_abajo_a_arriba" depart="311" color="1,1,0" />
    <vehicle id="izq_68" type="coche_normal" route="de_izquierda_a_derecha" depart="320" color="1,1,0" />
    <vehicle id="izq_69" type="coche_normal" route="de_izquierda_a_derecha" depart="329" color="1,1,0" />
    <vehicle id="abajo_70" type="coche_normal" route="de_abajo_a_arriba" depart="330" color="1,1,0" />
    <vehicle id="abajo_71" type="coche_normal" route="de_abajo_a_arriba" depart="343" color="1,1,0" />
    <vehicle id="abajo_ambulancia_72" type="emergencia" route="de_abajo_a_arriba" depart="347" color="1,0,0" />
    <vehicle id="izq_73" type="coche_normal" route="de_izquierda_a_derecha" depart="348" color="1,1,0" />
    <vehicle id="izq_74" type="coche_normal" route="de_izquierda_a_derecha" depart="352" color="1,1,0" />
    <vehicle id="abajo_75" type="coche_normal" route="de_abajo_a_arriba" depart="361" color="1,1,0" />
    <vehicle id="abajo_76" type="coche_normal" route="de_abajo_a_arriba" depart="362" color="1,1,0" />
    <vehicle id="izq_77" type="coche_normal" route="de_izquierda_a_derecha" depart="363" color="1,1,0" />
    <vehicle id="abajo_78" type="coche_normal" route="de_abajo_a_arriba" depart="370" color="1,1,0" />
    <vehicle id="izq_79" type="coche_normal" route="de_izquierda_a_derecha" depart="374" color="1,1,0" />
    <vehicle id="abajo_80" type="coche_normal" route="de_abajo_a_arriba" depart="376" color="1,1,0" />
    <vehicle id="abajo_81" type="coche_normal" route="de_abajo_a_arriba" depart="384" color="1,1,0" />
    <vehicle id="izq_82" type="coche_normal" route="de_izquierda_a_derecha" depart="389" color="1,1,0" />
    <vehicle id="abajo_83" type="coche_normal" route="de_abajo_a_arriba" depart="390" color="1,1,0" />
    <vehicle id="abajo_84" type="coche_normal" route="de_abajo_a_arriba" depart="395" color="1,1,0" />
    <vehicle id="izq_85" type="coche_normal" route="de_izquierda_a_derecha" depart="402" color="1,1,0" />
    <vehicle id="izq_86" type="coche_normal" route="de_izquierda_a_derecha" depart="406" color="1,1,0" />
    <vehicle id="abajo_87" type="coche_normal" route="de_abajo_a_arriba" depart="410" color="1,1,0" />
    <vehicle id="abajo_88" type="coche_normal" route="de_abajo_a_arriba" depart="434" color="1,1,0" />
    <vehicle id="abajo_89" type="coche_normal" route="de_abajo_a_arriba" depart="450" color="1,1,0" />
    <vehicle id="abajo_ambulancia_90" type="emergencia" route="de_abajo_a_arriba" depart="451" color="1,0,0" />
    <vehicle id="izq_91" type="coche_normal" route="de_izquierda_a_derecha" depart="459" color="1,1,0" />
    <vehicle id="abajo_92" type="coche_normal" route="de_abajo_a_arriba" depart="465" color="1,1,0" />
    <vehicle id="abajo_93" type="coche_normal" route="de_abajo_a_arriba" depart="468" color="1,1,0" />
    <vehicle id="abajo_94" type="coche_normal" route="de_abajo_a_arriba" depart="476" color="1,1,0" />
    <vehicle id="izq_95" type="coche_normal" route="de_izquierda_a_derecha" depart="477" color="1,1,0" />
    <vehicle id="abajo_96" type="coche_normal" route="de_abajo_a_arriba" depart="479" color="1,1,0" />
    <vehicle id="izq_97" type="coche_normal" route="de_izquierda_a_derecha" depart="481" color="1,1,0" />
    <vehicle id="izq_98" type="coche_normal" route="de_izquierda_a_derecha" depart="483" color="1,1,0" />
    <vehicle id="abajo_99" type="coche_normal" route="de_abajo_a_arriba" depart="483" color="1,1,0" />
    <vehicle id="izq_ambulancia_100" type="emergencia" route="de_izquierda_a_derecha" depart="490" color="1,0,0" />
    <vehicle id="abajo_101" type="coche_normal" route="de_abajo_a_arriba" depart="490" color="1,1,0" />
    <vehicle id="abajo_102" type="coche_normal" route="de_abajo_a_arriba" depart="494" color="1,1,0" />
    <vehicle id="izq_103" type="coche_normal" route="de_izquierda_a_derecha" depart="496" color="1,1,0" />
    <vehicle id="abajo_104" type="coche_normal" route="de_abajo_a_arriba" depart="497" color="1,1,0" />
    <vehicle id="izq_105" type="coche_normal" route="de_izquierda_a_derecha" depart="501" color="1,1,0" />
    <vehicle id="abajo_106" type="coche_normal" route="de_abajo_a_arriba" depart="512" color="1,1,0" />
    <vehicle id="izq_107" type="coche_normal" route="de_izquierda_a_derecha" depart="517" color="1,1,0" />
    <vehicle id="abajo_108" type="coche_normal" route="de_abajo_a_arriba" depart="525" color="1,1,0" />
    <vehicle id="izq_109" type="coche_normal" route="de_izquierda_a_derecha" depart="528" color="1,1,0" />
    <vehicle id="izq_110" type="coche_normal" route="de_izquierda_a_derecha" depart="530" color="1,1,0" />
    <vehicle id="abajo_111" type="coche_normal" route="de_abajo_a_arriba" depart="530" color="1,1,0" />
    <vehicle id="abajo_112" type="coche_normal" route="de_abajo_a_arriba" depart="531" color="1,1,0" />
    <vehicle id="izq_113" type="coche_normal" route="de_izquierda_a_derecha" depart="533" color="1,1,0" />
    <vehicle id="izq_114" type="coche_normal" route="de_izquierda_a_derecha" depart="538" color="1,1,0" />
    <vehicle id="izq_ambulancia_115" type="emergencia" route="de_izquierda_a_derecha" depart="538" color="1,0,0" />
    <vehicle id="izq_116" type="coche_normal" route="de_izquierda_a_derecha" depart="540" color="1,1,0" />
    <vehicle id="abajo_117" type="coche_normal" route="de_abajo_a_arriba" depart="540" color="1,1,0" />
    <vehicle id="izq_118" type="coche_normal" route="de_izquierda_a_derecha" depart="542" color="1,1,0" />
    <vehicle id="izq_119" type="coche_normal" route="de_izquierda_a_derecha" depart="543" color="1,1,0" />
    <vehicle id="izq_120" type="coche_normal" route="de_izquierda_a_derecha" depart="545" color="1,1,0" />
    <vehicle id="abajo_121" type="coche_normal" route="de_abajo_a_arriba" depart="552" color="1,1,0" />
    <vehicle id="abajo_122" type="coche_normal" route="de_abajo_a_arriba" depart="553" color="1,1,0" />
    <vehicle id="izq_ambulancia_123" type="emergencia" route="de_izquierda_a_derecha" depart="555" color="1,0,0" />
    <vehicle id="abajo_124" type="coche_normal" route="de_abajo_a_arriba" depart="557" color="1,1,0" />
    <vehicle id="izq_125" type="coche_normal" route="de_izquierda_a_derecha" depart="558" color="1,1,0" />
    <vehicle id="abajo_126" type="coche_normal" route="de_abajo_a_arriba" depart="559" color="1,1,0" />
    <vehicle id="izq_127" type="coche_normal" route="de_izquierda_a_derecha" depart="562" color="1,1,0" />
    <vehicle id="izq_128" type="coche_normal" route="de_izquierda_a_derecha" depart="563" color="1,1,0" />
    <vehicle id="abajo_129" type="coche_normal" route="de_abajo_a_arriba" depart="579" color="1,1,0" />
    <vehicle id="abajo_130" type="coche_normal" route="de_abajo_a_arriba" depart="582" color="1,1,0" />
    <vehicle id="abajo_131" type="coche_normal" route="de_abajo_a_arriba" depart="585" color="1,1,0" />
    <vehicle id="izq_132" type="coche_normal" route="de_izquierda_a_derecha" depart="596" color="1,1,0" />
    <vehicle id="izq_133" type="coche_normal" route="de_izquierda_a_derecha" depart="601" color="1,1,0" />
    <vehicle id="izq_134" type="coche_normal" route="de_izquierda_a_derecha" depart="606" color="1,1,0" />
    <vehicle id="abajo_135" type="coche_normal" route="de_abajo_a_arriba" depart="606" color="1,1,0" />
    <vehicle id="izq_136" type="coche_normal" route="de_izquierda_a_derecha" depart="609" color="1,1,0" />
    <vehicle id="abajo_137" type="coche_normal" route="de_abajo_a_arriba" depart="619" color="1,1,0" />
    <vehicle id="izq_138" type="coche_normal" route="de_izquierda_a_derecha" depart="629" color="1,1,0" />
    <vehicle id="izq_139" type="coche_normal" route="de_izquierda_a_derecha" depart="634" color="1,1,0" />
    <vehicle id="abajo_ambulancia_140" type="emergencia" route="de_abajo_a_arriba" depart="635" color="1,0,0" />
    <vehicle id="abajo_ambulancia_141" type="emergencia" route="de_abajo_a_arriba" depart="640" color="1,0,0" />
    <vehicle id="izq_142" type="coche_normal" route="de_izquierda_a_derecha" depart="642" color="1,1,0" />
    <vehicle id="abajo_143" type="coche_normal" route="de_abajo_a_arriba" depart="643" color="1,1,0" />
    <vehicle id="abajo_ambulancia_144" type="emergencia" route="de_abajo_a_arriba" depart="646" color="1,0,0" />
    <vehicle id="izq_145" type="coche_normal" route="de_izquierda_a_derecha" depart="649" color="1,1,0" />
    <vehicle id="abajo_146" type="coche_normal" route="de_abajo_a_arriba" depart="654" color="1,1,0" />
    <vehicle id="abajo_147" type="coche_normal" route="de_abajo_a_arriba" depart="659" color="1,1,0" />
    <vehicle id="izq_148" type="coche_normal" route="de_izquierda_a_derecha" depart="660" color="1,1,0" />
    <vehicle id="izq_149" type="coche_normal" route="de_izquierda_a_derecha" depart="662" color="1,1,0" />
    <vehicle id="abajo_150" type="coche_normal" route="de_abajo_a_arriba" depart="666" color="1,1,0" />
    <vehicle id="abajo_151" type="coche_normal" route="de_abajo_a_arriba" depart="672" color="1,1,0" />
    <vehicle id="abajo_ambulancia_152" type="emergencia" route="de_abajo_a_arriba" depart="683" color="1,0,0" />
    <vehicle id="izq_153" type="coche_normal" route="de_izquierda_a_derecha" depart="687" color="1,1,0" />
    <vehicle id="abajo_ambulancia_154" type="emergencia" route="de_abajo_a_arriba" depart="688" color="1,0,0" />
    <vehicle id="abajo_155" type="coche_normal" route="de_abajo_a_arriba" depart="691" color="1,1,0" />
    <vehicle id="abajo_156" type="coche_normal" route="de_abajo_a_arriba" depart="693" color="1,1,0" />
    <vehicle id="abajo_157" type="coche_normal" route="de_abajo_a_arriba" depart="702" color="1,1,0" />
    <vehicle id="izq_158" type="coche_normal" route="de_izquierda_a_derecha" depart="709" color="1,1,0" />
    <vehicle id="izq_159" type="coche_normal" route="de_izquierda_a_derecha" depart="711" color="1,1,0" />
    <vehicle id="abajo_160" type="coche_normal" route="de_abajo_a_arriba" depart="712" color="1,1,0" />
    <vehicle id="izq_161" type="coche_normal" route="de_izquierda_a_derecha" depart="724" color="1,1,0" />
    <vehicle id="izq_162" type="coche_normal" route="de_izquierda_a_derecha" depart="730" color="1,1,0" />
    <vehicle id="izq_163" type="coche_normal" route="de_izquierda_a_derecha" depart="731" color="1,1,0" />
    <vehicle id="izq_164" type="coche_normal" route="de_izquierda_a_derecha" depart="733" color="1,1,0" />
    <vehicle id="izq_165" type="coche_normal" route="de_izquierda_a_derecha" depart="745" color="1,1,0" />
    <vehicle id="abajo_166" type="coche_normal" route="de_abajo_a_arriba" depart="747" color="1,1,0" />
    <vehicle id="izq_167" type="coche_normal" route="de_izquierda_a_derecha" depart="751" color="1,1,0" />
    <vehicle id="abajo_168" type="coche_normal" route="de_abajo_a_arriba" depart="761" color="1,1,0" />
    <vehicle id="izq_169" type="coche_normal" route="de_izquierda_a_derecha" depart="763" color="1,1,0" />
    <vehicle id="abajo_170" type="coche_normal" route="de_abajo_a_arriba" depart="765" color="1,1,0" />
    <vehicle id="abajo_171" type="coche_normal" route="de_abajo_a_arriba" depart="783" color="1,1,0" />
    <vehicle id="abajo_172" type="coche_normal" route="de_abajo_a_arriba" depart="792" color="1,1,0" />
    <vehicle id="izq_173" type="coche_normal" route="de_izquierda_a_derecha" depart="801" color="1,1,0" />
    <vehicle id="abajo_ambulancia_174" type="emergencia" route="de_abajo_a_arriba" depart="801" color="1,0,0" />
    <vehicle id="abajo_ambulancia_175" type="emergencia" route="de_abajo_a_arriba" depart="802" color="1,0,0" />
    <vehicle id="abajo_176" type="coche_normal" route="de_abajo_a_arriba" depart="808" color="1,1,0" />
    <vehicle id="izq_177" type="coche_normal" route="de_izquierda_a_derecha" depart="814" color="1,1,0" />
    <vehicle id="izq_178" type="coche_normal" route="de_izquierda_a_derecha" depart="823" color="1,1,0" />
    <vehicle id="abajo_179" type="coche_normal" route="de_abajo_a_arriba" depart="824" color="1,1,0" />
    <vehicle id="izq_ambulancia_180" type="emergencia" route="de_izquierda_a_derecha" depart="828" color="1,0,0" />
    <vehicle id="izq_181" type="coche_normal" route="de_izquierda_a_derecha" depart="830" color="1,1,0" />
    <vehicle id="abajo_182" type="coche_normal" route="de_abajo_a_arriba" depart="831" color="1,1,0" />
    <vehicle id="abajo_183" type="coche_normal" route="de_abajo_a_arriba" depart="851" color="1,1,0" />
    <vehicle id="izq_184" type="coche_normal" route="de_izquierda_a_derecha" depart="853" color="1,1,0" />
    <vehicle id="izq_185" type="coche_normal" route="de_izquierda_a_derecha" depart="857" color="1,1,0" />
    <vehicle id="abajo_186" type="coche_normal" route="de_abajo_a_arriba" depart="857" color="1,1,0" />
    <vehicle id="abajo_187" type="coche_normal" route="de_abajo_a_arriba" depart="859" color="1,1,0" />
    <vehicle id="abajo_188" type="coche_normal" route="de_abajo_a_arriba" depart="870" color="1,1,0" />
    <vehicle id="izq_ambulancia_189" type="emergencia" route="de_izquierda_a_derecha" depart="879" color="1,0,0" />
    <vehicle id="abajo_190" type="coche_normal" route="de_abajo_a_arriba" depart="879" color="1,1,0" />
    <vehicle id="izq_191" type="coche_normal" route="de_izquierda_a_derecha" depart="886" color="1,1,0" />
    <vehicle id="izq_192" type="coche_normal" route="de_izquierda_a_derecha" depart="906" color="1,1,0" />
    <vehicle id="izq_193" type="coche_normal" route="de_izquierda_a_derecha" depart="909" color="1,1,0" />
    <vehicle id="abajo_ambulancia_194" type="emergencia" route="de_abajo_a_arriba" depart="913" color="1,0,0" />
    <vehicle id="abajo_195" type="coche_normal" route="de_abajo_a_arriba" depart="921" color="1,1,0" />
    <vehicle id="izq_196" type="coche_normal" route="de_izquierda_a_derecha" depart="928" color="1,1,0" />
    <vehicle id="abajo_ambulancia_197" type="emergencia" route="de_abajo_a_arriba" depart="934" color="1,0,0" />
    <vehicle id="izq_198" type="coche_normal" route="de_izquierda_a_derecha" depart="935" color="1,1,0" />
    <vehicle id="izq_199" type="coche_normal" route="de_izquierda_a_derecha" depart="939" color="1,1,0" />
    <vehicle id="abajo_200" type="coche_normal" route="de_abajo_a_arriba" depart="941" color="1,1,0" />
    <vehicle id="abajo_201" type="coche_normal" route="de_abajo_a_arriba" depart="943" color="1,1,0" />
    <vehicle id="izq_ambulancia_202" type="emergencia" route="de_izquierda_a_derecha" depart="950" color="1,0,0" />
    <vehicle id="abajo_203" type="coche_normal" route="de_abajo_a_arriba" depart="956" color="1,1,0" />
    <vehicle id="izq_204" type="coche_normal" route="de_izquierda_a_derecha" depart="961" color="1,1,0" />
    <vehicle id="abajo_205" type="coche_normal" route="de_abajo_a_arriba" depart="966" color="1,1,0" />
    <vehicle id="abajo_ambulancia_206" type="emergencia" route="de_abajo_a_arriba" depart="966" color="1,0,0" />
    <vehicle id="izq_207" type="coche_normal" route="de_izquierda_a_derecha" depart="976" color="1,1,0" />
    <vehicle id="abajo_208" type="coche_normal" route="de_abajo_a_arriba" depart="976" color="1,1,0" />
    <vehicle id="izq_209" type="coche_normal" route="de_izquierda_a_derecha" depart="978" color="1,1,0" />
    <vehicle id="abajo_210" type="coche_normal" route="de_abajo_a_arriba" depart="984" color="1,1,0" />
    <vehicle id="abajo_211" type="coche_normal" route="de_abajo_a_arriba" depart="988" color="1,1,0" />
    <vehicle id="abajo_212" type="coche_normal" route="de_abajo_a_arriba" depart="989" color="1,1,0" />
    <vehicle id="izq_213" type="coche_normal" route="de_izquierda_a_derecha" depart="990" color="1,1,0" />
    <vehicle id="abajo_214" type="coche_normal" route="de_abajo_a_arriba" depart="991" color="1,1,0" />
    <vehicle id="abajo_215" type="coche_normal" route="de_abajo_a_arriba" depart="992" color="1,1,0" />
    <vehicle id="abajo_216" type="coche_normal" route="de_abajo_a_arriba" depart="998" color="1,1,0" />
    <vehicle id="abajo_217" type="coche_normal" route="de_abajo_a_arriba" depart="1002" color="1,1,0" />
    <vehicle id="izq_218" type="coche_normal" route="de_izquierda_a_derecha" depart="1005" color="1,1,0" />
    <vehicle id="izq_ambulancia_219" type="emergencia" route="de_izquierda_a_derecha" depart="1008" color="1,0,0" />
    <vehicle id="abajo_ambulancia_220" type="emergencia" route="de_abajo_a_arriba" depart="1017" color="1,0,0" />
    <vehicle id="izq_221" type="coche_normal" route="de_izquierda_a_derecha" depart="1018" color="1,1,0" />
    <vehicle id="izq_222" type="coche_normal" route="de_izquierda_a_derecha" depart="1019" color="1,1,0" />
    <vehicle id="abajo_223" type="coche_normal" route="de_abajo_a_arriba" depart="1019" color="1,1,0" />
    <vehicle id="abajo_224" type="coche_normal" route="de_abajo_a_arriba" depart="1023" color="1,1,0" />
    <vehicle id="izq_ambulancia_225" type="emergencia" route="de_izquierda_a_derecha" depart="1025" color="1,0,0" />
    <vehicle id="abajo_226" type="coche_normal" route="de_abajo_a_arriba" depart="1027" color="1,1,0" />
    <vehicle id="abajo_227" type="coche_normal" route="de_abajo_a_arriba" depart="1035" color="1,1,0" />
    <vehicle id="izq_228" type="coche_normal" route="de_izquierda_a_derecha" depart="1036" color="1,1,0" />
    <vehicle id="izq_229" type="coche_normal" route="de_izquierda_a_derecha" depart="1038" color="1,1,0" />
    <vehicle id="abajo_230" type="coche_normal" route="de_abajo_a_arriba" depart="1039" color="1,1,0" />
    <vehicle id="izq_231" type="coche_normal" route="de_izquierda_a_derecha" depart="1049" color="1,1,0" />
    <vehicle id="izq_232" type="coche_normal" route="de_izquierda_a_derecha" depart="1052" color="1,1,0" />
    <vehicle id="abajo_233" type="coche_normal" route="de_abajo_a_arriba" depart="1062" color="1,1,0" />
    <vehicle id="izq_234" type="coche_normal" route="de_izquierda_a_derecha" depart="1065" color="1,1,0" />
    <vehicle id="izq_235" type="coche_normal" route="de_izquierda_a_derecha" depart="1071" color="1,1,0" />
    <vehicle id="izq_236" type="coche_normal" route="de_izquierda_a_derecha" depart="1076" color="1,1,0" />
    <vehicle id="abajo_237" type="coche_normal" route="de_abajo_a_arriba" depart="1077" color="1,1,0" />
    <vehicle id="izq_238" type="coche_normal" route="de_izquierda_a_derecha" depart="1081" color="1,1,0" />
    <vehicle id="abajo_239" type="coche_normal" route="de_abajo_a_arriba" depart="1087" color="1,1,0" />
    <vehicle id="abajo_ambulancia_240" type="emergencia" route="de_abajo_a_arriba" depart="1088" color="1,0,0" />
    <vehicle id="abajo_ambulancia_241" type="emergencia" route="de_abajo_a_arriba" depart="1089" color="1,0,0" />
    <vehicle id="abajo_ambulancia_242" type="emergencia" route="de_abajo_a_arriba" depart="1090" color="1,0,0" />
    <vehicle id="abajo_ambulancia_243" type="emergencia" route="de_abajo_a_arriba" depart="1097" color="1,0,0" />
    <vehicle id="izq_244" type="coche_normal" route="de_izquierda_a_derecha" depart="1098" color="1,1,0" />
    <vehicle id="abajo_ambulancia_245" type="emergencia" route="de_abajo_a_arriba" depart="1112" color="1,0,0" />
    <vehicle id="izq_246" type="coche_normal" route="de_izquierda_a_derecha" depart="1113" color="1,1,0" />
    <vehicle id="izq_247" type="coche_normal" route="de_izquierda_a_derecha" depart="1116" color="1,1,0" />
    <vehicle id="izq_248" type="coche_normal" route="de_izquierda_a_derecha" depart="1123" color="1,1,0" />
    <vehicle id="izq_ambulancia_249" type="emergencia" route="de_izquierda_a_derecha" depart="1124" color="1,0,0" />
    <vehicle id="izq_250" type="coche_normal" route="de_izquierda_a_derecha" depart="1133" color="1,1,0" />
    <vehicle id="izq_251" type="coche_normal" route="de_izquierda_a_derecha" depart="1137" color="1,1,0" />
    <vehicle id="izq_252" type="coche_normal" route="de_izquierda_a_derecha" depart="1138" color="1,1,0" />
    <vehicle id="izq_253" type="coche_normal" route="de_izquierda_a_derecha" depart="1154" color="1,1,0" />
    <vehicle id="izq_254" type="coche_normal" route="de_izquierda_a_derecha" depart="1158" color="1,1,0" />
    <vehicle id="abajo_255" type="coche_normal" route="de_abajo_a_arriba" depart="1160" color="1,1,0" />
    <vehicle id="abajo_256" type="coche_normal" route="de_abajo_a_arriba" depart="1161" color="1,1,0" />
    <vehicle id="abajo_257" type="coche_normal" route="de_abajo_a_arriba" depart="1173" color="1,1,0" />
    <vehicle id="abajo_258" type="coche_normal" route="de_abajo_a_arriba" depart="1176" color="1,1,0" />
    <vehicle id="abajo_259" type="coche_normal" route="de_abajo_a_arriba" depart="1177" color="1,1,0" />
    <vehicle id="izq_260" type="coche_normal" route="de_izquierda_a_derecha" depart="1180" color="1,1,0" />
    <vehicle id="izq_261" type="coche_normal" route="de_izquierda_a_derecha" depart="1182" color="1,1,0" />
    <vehicle id="abajo_262" type="coche_normal" route="de_abajo_a_arriba" depart="1182" color="1,1,0" />
    <vehicle id="izq_263" type="coche_normal" route="de_izquierda_a_derecha" depart="1184" color="1,1,0" />
    <vehicle id="abajo_264" type="coche_normal" route="de_abajo_a_arriba" depart="1185" color="1,1,0" />
    <vehicle id="abajo_265" type="coche_normal" route="de_abajo_a_arriba" depart="1187" color="1,1,0" />
    <vehicle id="izq_266" type="coche_normal" route="de_izquierda_a_derecha" depart="1209" color="1,1,0" />
    <vehicle id="abajo_267" type="coche_normal" route="de_abajo_a_arriba" depart="1209" color="1,1,0" />
    <vehicle id="izq_268" type="coche_normal" route="de_izquierda_a_derecha" depart="1211" color="1,1,0" />
    <vehicle id="abajo_269" type="coche_normal" route="de_abajo_a_arriba" depart="1216" color="1,1,0" />
    <vehicle id="abajo_270" type="coche_normal" route="de_abajo_a_arriba" depart="1218" color="1,1,0" />
    <vehicle id="abajo_271" type="coche_normal" route="de_abajo_a_arriba" depart="1220" color="1,1,0" />
    <vehicle id="izq_ambulancia_272" type="emergencia" route="de_izquierda_a_derecha" depart="1234" color="1,0,0" />
    <vehicle id="abajo_273" type="coche_normal" route="de_abajo_a_arriba" depart="1237" color="1,1,0" />
    <vehicle id="izq_ambulancia_274" type="emergencia" route="de_izquierda_a_derecha" depart="1252" color="1,0,0" />
    <vehicle id="abajo_275" type="coche_normal" route="de_abajo_a_arriba" depart="1252" color="1,1,0" />
    <vehicle id="izq_276" type="coche_normal" route="de_izquierda_a_derecha" depart="1255" color="1,1,0" />