<?xml version="1.0" encoding="UTF-8"?>

<!-- generated on 02/13/20 15:23:24 by Eclipse SUMO netedit Version 1.3.1
<configuration xmlns:xsi="http://www.w3.org/2001/XMLSchema-instance" xsi:noNamespaceSchemaLocation="http://sumo.dlr.de/xsd/netconvertConfiguration.xsd">

    <input>
        <sumo-net-file value="C:\Users\GGONZALEZ\Sumo\CIMAT_DEMO\demo.net.xml"/>
    </input>

    <output>
        <output-file value="C:\Users\GGONZALEZ\Sumo\CIMAT_DEMO\demo.net.xml"/>
    </output>

    <processing>
        <geometry.max-grade.fix value="false"/>
        <offset.disable-normalization value="true"/>
        <opposites.guess.fix-lengths value="true"/>
        <lefthand value="false"/>
    </processing>

    <junctions>
        <no-turnarounds value="true"/>
        <junctions.corner-detail value="5"/>
        <junctions.limit-turn-speed value="5.5"/>
        <rectangular-lane-cut value="false"/>
    </junctions>

    <pedestrian>
        <walkingareas value="false"/>
    </pedestrian>

    <netedit>
        <additional-files value="C:\Users\GGONZALEZ\Sumo\CIMAT_DEMO\extras.det.xml"/>
    </netedit>

</configuration>
-->

<additional xmlns:xsi="http://www.w3.org/2001/XMLSchema-instance" xsi:noNamespaceSchemaLocation="http://sumo.dlr.de/xsd/additional_file.xsd">
    <e1Detector id="detector_abajo" lane="abajo_a_arriba_inicio_0" pos="400.00" freq="30" file="detector.xml"/>
    <e1Detector id="detector_izquierda" lane="izquierda_a_derecha_inicio_0" pos="400.00" freq="30" file="detector.xml"/>
</additional>