<configuration>
   <input>
       <net-file value="demo.net.xml"/>
       <route-files value="vehiculos.rou.xml"/>
       <additional-files value="demo.det.xml, politicas_de_control.tls.xml"/>

   </input>

   <gui_only>
        <gui-settings-file value="demo.view.xml"/>
   </gui_only>
</configuration>