<routes>
        <vType id="coche_normal" length="5" color="1,1,0" maxSpeed="50" accel="2.6" decel="4.5" sigma="0.2" vClass="passenger"/>
    <vType id="emergencia" length="5" color="1,0,0" maxSpeed="50" accel="2.6" decel="4.5" sigma="0.2" vClass="emergency"/>
    <route id="de_izquierda_a_derecha" edges="izquierda_a_derecha_inicio izquierda_a_derecha_fin" />
    <route id="de_abajo_a_arriba" edges="abajo_a_arriba_inicio abajo_a_arriba_fin" />
    
    <vehicle id="izq_0" type="coche_normal" route="de_izquierda_a_derecha" depart="3" color="1,1,0" />
    <vehicle id="izq_1" type="coche_normal" route="de_izquierda_a_derecha" depart="11" color="1,1,0" />
    <vehicle id="izq_2" type="coche_normal" route="de_izquierda_a_derecha" depart="22" color="1,1,0" />
    <vehicle id="izq_3" type="coche_normal" route="de_izquierda_a_derecha" depart="25" color="1,1,0" />
    <vehicle id="izq_4" type="coche_normal" route="de_izquierda_a_derecha" depart="31" color="1,1,0" />
    <vehicle id="abajo_5" type="coche_normal" route="de_abajo_a_arriba" depart="31" color="1,1,0" />
    <vehicle id="izq_6" type="coche_normal" route="de_izquierda_a_derecha" depart="34" color="1,1,0" />
    <vehicle id="izq_7" type="coche_normal" route="de_izquierda_a_derecha" depart="40" color="1,1,0" />
    <vehicle id="izq_8" type="coche_normal" route="de_izquierda_a_derecha" depart="44" color="1,1,0" />
    <vehicle id="izq_9" type="coche_normal" route="de_izquierda_a_derecha" depart="56" color="1,1,0" />
    <vehicle id="izq_10" type="coche_normal" route="de_izquierda_a_derecha" depart="63" color="1,1,0" />
    <vehicle id="izq_11" type="coche_normal" route="de_izquierda_a_derecha" depart="64" color="1,1,0" />
    <vehicle id="izq_ambulancia_12" type="emergencia" route="de_izquierda_a_derecha" depart="67" color="1,0,0" />
    <vehicle id="abajo_13" type="coche_normal" route="de_abajo_a_arriba" depart="72" color="1,1,0" />
    <vehicle id="izq_ambulancia_14" type="emergencia" route="de_izquierda_a_derecha" depart="74" color="1,0,0" />
    <vehicle id="izq_15" type="coche_normal" route="de_izquierda_a_derecha" depart="81" color="1,1,0" />
    <vehicle id="izq_16" type="coche_normal" route="de_izquierda_a_derecha" depart="92" color="1,1,0" />
    <vehicle id="abajo_17" type="coche_normal" route="de_abajo_a_arriba" depart="98" color="1,1,0" />
    <vehicle id="izq_18" type="coche_normal" route="de_izquierda_a_derecha" depart="115" color="1,1,0" />
    <vehicle id="izq_ambulancia_19" type="emergencia" route="de_izquierda_a_derecha" depart="120" color="1,0,0" />
    <vehicle id="izq_20" type="coche_normal" route="de_izquierda_a_derecha" depart="126" color="1,1,0" />
    <vehicle id="izq_21" type="coche_normal" route="de_izquierda_a_derecha" depart="127" color="1,1,0" />
    <vehicle id="abajo_22" type="coche_normal" route="de_abajo_a_arriba" depart="129" color="1,1,0" />
    <vehicle id="izq_23" type="coche_normal" route="de_izquierda_a_derecha" depart="132" color="1,1,0" />
    <vehicle id="abajo_24" type="coche_normal" route="de_abajo_a_arriba" depart="149" color="1,1,0" />
    <vehicle id="izq_25" type="coche_normal" route="de_izquierda_a_derecha" depart="150" color="1,1,0" />
    <vehicle id="izq_26" type="coche_normal" route="de_izquierda_a_derecha" depart="152" color="1,1,0" />
    <vehicle id="izq_27" type="coche_normal" route="de_izquierda_a_derecha" depart="164" color="1,1,0" />
    <vehicle id="izq_28" type="coche_normal" route="de_izquierda_a_derecha" depart="171" color="1,1,0" />
    <vehicle id="izq_29" type="coche_normal" route="de_izquierda_a_derecha" depart="179" color="1,1,0" />
    <vehicle id="izq_30" type="coche_normal" route="de_izquierda_a_derecha" depart="180" color="1,1,0" />
    <vehicle id="izq_31" type="coche_normal" route="de_izquierda_a_derecha" depart="182" color="1,1,0" />
    <vehicle id="izq_32" type="coche_normal" route="de_izquierda_a_derecha" depart="213" color="1,1,0" />
    <vehicle id="izq_33" type="coche_normal" route="de_izquierda_a_derecha" depart="216" color="1,1,0" />
    <vehicle id="abajo_34" type="coche_normal" route="de_abajo_a_arriba" depart="220" color="1,1,0" />
    <vehicle id="izq_35" type="coche_normal" route="de_izquierda_a_derecha" depart="227" color="1,1,0" />
    <vehicle id="izq_36" type="coche_normal" route="de_izquierda_a_derecha" depart="239" color="1,1,0" />
    <vehicle id="izq_37" type="coche_normal" route="de_izquierda_a_derecha" depart="245" color="1,1,0" />
    <vehicle id="izq_38" type="coche_normal" route="de_izquierda_a_derecha" depart="250" color="1,1,0" />
    <vehicle id="abajo_39" type="coche_normal" route="de_abajo_a_arriba" depart="256" color="1,1,0" />
    <vehicle id="abajo_40" type="coche_normal" route="de_abajo_a_arriba" depart="258" color="1,1,0" />
    <vehicle id="izq_41" type="coche_normal" route="de_izquierda_a_derecha" depart="266" color="1,1,0" />
    <vehicle id="izq_ambulancia_42" type="emergencia" route="de_izquierda_a_derecha" depart="283" color="1,0,0" />
    <vehicle id="izq_43" type="coche_normal" route="de_izquierda_a_derecha" depart="287" color="1,1,0" />
    <vehicle id="izq_44" type="coche_normal" route="de_izquierda_a_derecha" depart="292" color="1,1,0" />
    <vehicle id="abajo_45" type="coche_normal" route="de_abajo_a_arriba" depart="293" color="1,1,0" />
    <vehicle id="izq_46" type="coche_normal" route="de_izquierda_a_derecha" depart="296" color="1,1,0" />
    <vehicle id="izq_47" type="coche_normal" route="de_izquierda_a_derecha" depart="309" color="1,1,0" />
    <vehicle id="izq_48" type="coche_normal" route="de_izquierda_a_derecha" depart="310" color="1,1,0" />
    <vehicle id="izq_49" type="coche_normal" route="de_izquierda_a_derecha" depart="311" color="1,1,0" />
    <vehicle id="izq_50" type="coche_normal" route="de_izquierda_a_derecha" depart="320" color="1,1,0" />
    <vehicle id="izq_51" type="coche_normal" route="de_izquierda_a_derecha" depart="329" color="1,1,0" />
    <vehicle id="izq_52" type="coche_normal" route="de_izquierda_a_derecha" depart="348" color="1,1,0" />
    <vehicle id="izq_53" type="coche_normal" route="de_izquierda_a_derecha" depart="352" color="1,1,0" />
    <vehicle id="izq_54" type="coche_normal" route="de_izquierda_a_derecha" depart="363" color="1,1,0" />
    <vehicle id="izq_55" type="coche_normal" route="de_izquierda_a_derecha" depart="374" color="1,1,0" />
    <vehicle id="izq_56" type="coche_normal" route="de_izquierda_a_derecha" depart="389" color="1,1,0" />
    <vehicle id="izq_57" type="coche_normal" route="de_izquierda_a_derecha" depart="402" color="1,1,0" />
    <vehicle id="izq_58" type="coche_normal" route="de_izquierda_a_derecha" depart="406" color="1,1,0" />
    <vehicle id="abajo_59" type="coche_normal" route="de_abajo_a_arriba" depart="434" color="1,1,0" />
    <vehicle id="izq_60" type="coche_normal" route="de_izquierda_a_derecha" depart="459" color="1,1,0" />
    <vehicle id="abajo_61" type="coche_normal" route="de_abajo_a_arriba" depart="468" color="1,1,0" />
    <vehicle id="izq_62" type="coche_normal" route="de_izquierda_a_derecha" depart="477" color="1,1,0" />
    <vehicle id="izq_63" type="coche_normal" route="de_izquierda_a_derecha" depart="481" color="1,1,0" />
    <vehicle id="izq_64" type="coche_normal" route="de_izquierda_a_derecha" depart="483" color="1,1,0" />
    <vehicle id="izq_ambulancia_65" type="emergencia" route="de_izquierda_a_derecha" depart="490" color="1,0,0" />
    <vehicle id="abajo_66" type="coche_normal" route="de_abajo_a_arriba" depart="494" color="1,1,0" />
    <vehicle id="izq_67" type="coche_normal" route="de_izquierda_a_derecha" depart="496" color="1,1,0" />
    <vehicle id="izq_68" type="coche_normal" route="de_izquierda_a_derecha" depart="501" color="1,1,0" />
    <vehicle id="abajo_69" type="coche_normal" route="de_abajo_a_arriba" depart="512" color="1,1,0" />
    <vehicle id="izq_70" type="coche_normal" route="de_izquierda_a_derecha" depart="517" color="1,1,0" />
    <vehicle id="izq_71" type="coche_normal" route="de_izquierda_a_derecha" depart="528" color="1,1,0" />
    <vehicle id="izq_72" type="coche_normal" route="de_izquierda_a_derecha" depart="530" color="1,1,0" />
    <vehicle id="abajo_73" type="coche_normal" route="de_abajo_a_arriba" depart="530" color="1,1,0" />
    <vehicle id="abajo_74" type="coche_normal" route="de_abajo_a_arriba" depart="531" color="1,1,0" />
    <vehicle id="izq_75" type="coche_normal" route="de_izquierda_a_derecha" depart="533" color="1,1,0" />
    <vehicle id="izq_76" type="coche_normal" route="de_izquierda_a_derecha" depart="538" color="1,1,0" />
    <vehicle id="izq_ambulancia_77" type="emergencia" route="de_izquierda_a_derecha" depart="538" color="1,0,0" />
    <vehicle id="izq_78" type="coche_normal" route="de_izquierda_a_derecha" depart="540" color="1,1,0" />
    <vehicle id="izq_79" type="coche_normal" route="de_izquierda_a_derecha" depart="542" color="1,1,0" />
    <vehicle id="izq_80" type="coche_normal" route="de_izquierda_a_derecha" depart="543" color="1,1,0" />
    <vehicle id="izq_81" type="coche_normal" route="de_izquierda_a_derecha" depart="545" color="1,1,0" />
    <vehicle id="izq_ambulancia_82" type="emergencia" route="de_izquierda_a_derecha" depart="555" color="1,0,0" />
    <vehicle id="izq_83" type="coche_normal" route="de_izquierda_a_derecha" depart="558" color="1,1,0" />
    <vehicle id="izq_84" type="coche_normal" route="de_izquierda_a_derecha" depart="562" color="1,1,0" />
    <vehicle id="izq_85" type="coche_normal" route="de_izquierda_a_derecha" depart="563" color="1,1,0" />
    <vehicle id="abajo_86" type="coche_normal" route="de_abajo_a_arriba" depart="582" color="1,1,0" />
    <vehicle id="izq_87" type="coche_normal" route="de_izquierda_a_derecha" depart="596" color="1,1,0" />
    <vehicle id="izq_88" type="coche_normal" route="de_izquierda_a_derecha" depart="601" color="1,1,0" />
    <vehicle id="izq_89" type="coche_normal" route="de_izquierda_a_derecha" depart="606" color="1,1,0" />
    <vehicle id="abajo_90" type="coche_normal" route="de_abajo_a_arriba" depart="606" color="1,1,0" />
    <vehicle id="izq_91" type="coche_normal" route="de_izquierda_a_derecha" depart="609" color="1,1,0" />
    <vehicle id="izq_92" type="coche_normal" route="de_izquierda_a_derecha" depart="629" color="1,1,0" />
    <vehicle id="izq_93" type="coche_normal" route="de_izquierda_a_derecha" depart="634" color="1,1,0" />
    <vehicle id="izq_94" type="coche_normal" route="de_izquierda_a_derecha" depart="642" color="1,1,0" />
    <vehicle id="izq_95" type="coche_normal" route="de_izquierda_a_derecha" depart="649" color="1,1,0" />
    <vehicle id="izq_96" type="coche_normal" route="de_izquierda_a_derecha" depart="660" color="1,1,0" />
    <vehicle id="izq_97" type="coche_normal" route="de_izquierda_a_derecha" depart="662" color="1,1,0" />
    <vehicle id="izq_98" type="coche_normal" route="de_izquierda_a_derecha" depart="687" color="1,1,0" />
    <vehicle id="izq_99" type="coche_normal" route="de_izquierda_a_derecha" depart="709" color="1,1,0" />
    <vehicle id="izq_100" type="coche_normal" route="de_izquierda_a_derecha" depart="711" color="1,1,0" />
    <vehicle id="izq_101" type="coche_normal" route="de_izquierda_a_derecha" depart="724" color="1,1,0" />
    <vehicle id="izq_102" type="coche_normal" route="de_izquierda_a_derecha" depart="730" color="1,1,0" />
    <vehicle id="izq_103" type="coche_normal" route="de_izquierda_a_derecha" depart="731" color="1,1,0" />
    <vehicle id="izq_104" type="coche_normal" route="de_izquierda_a_derecha" depart="733" color="1,1,0" />
    <vehicle id="izq_105" type="coche_normal" route="de_izquierda_a_derecha" depart="745" color="1,1,0" />
    <vehicle id="abajo_106" type="coche_normal" route="de_abajo_a_arriba" depart="747" color="1,1,0" />
    <vehicle id="izq_107" type="coche_normal" route="de_izquierda_a_derecha" depart="751" color="1,1,0" />
    <vehicle id="izq_108" type="coche_normal" route="de_izquierda_a_derecha" depart="763" color="1,1,0" />
    <vehicle id="izq_109" type="coche_normal" route="de_izquierda_a_derecha" depart="801" color="1,1,0" />
    <vehicle id="izq_110" type="coche_normal" route="de_izquierda_a_derecha" depart="814" color="1,1,0" />
    <vehicle id="izq_111" type="coche_normal" route="de_izquierda_a_derecha" depart="823" color="1,1,0" />
    <vehicle id="izq_ambulancia_112" type="emergencia" route="de_izquierda_a_derecha" depart="828" color="1,0,0" />
    <vehicle id="izq_113" type="coche_normal" route="de_izquierda_a_derecha" depart="830" color="1,1,0" />
    <vehicle id="abajo_114" type="coche_normal" route="de_abajo_a_arriba" depart="851" color="1,1,0" />
    <vehicle id="izq_115" type="coche_normal" route="de_izquierda_a_derecha" depart="853" color="1,1,0" />
    <vehicle id="izq_116" type="coche_normal" route="de_izquierda_a_derecha" depart="857" color="1,1,0" />
    <vehicle id="izq_ambulancia_117" type="emergencia" route="de_izquierda_a_derecha" depart="879" color="1,0,0" />
    <vehicle id="izq_118" type="coche_normal" route="de_izquierda_a_derecha" depart="886" color="1,1,0" />
    <vehicle id="izq_119" type="coche_normal" route="de_izquierda_a_derecha" depart="906" color="1,1,0" />
    <vehicle id="izq_120" type="coche_normal" route="de_izquierda_a_derecha" depart="909" color="1,1,0" />
    <vehicle id="izq_121" type="coche_normal" route="de_izquierda_a_derecha" depart="928" color="1,1,0" />
    <vehicle id="izq_122" type="coche_normal" route="de_izquierda_a_derecha" depart="935" color="1,1,0" />
    <vehicle id="izq_123" type="coche_normal" route="de_izquierda_a_derecha" depart="939" color="1,1,0" />
    <vehicle id="abajo_124" type="coche_normal" route="de_abajo_a_arriba" depart="941" color="1,1,0" />
    <vehicle id="izq_ambulancia_125" type="emergencia" route="de_izquierda_a_derecha" depart="950" color="1,0,0" />
    <vehicle id="izq_126" type="coche_normal" route="de_izquierda_a_derecha" depart="961" color="1,1,0" />
    <vehicle id="izq_127" type="coche_normal" route="de_izquierda_a_derecha" depart="976" color="1,1,0" />
    <vehicle id="izq_128" type="coche_normal" route="de_izquierda_a_derecha" depart="978" color="1,1,0" />
    <vehicle id="izq_129" type="coche_normal" route="de_izquierda_a_derecha" depart="990" color="1,1,0" />
    <vehicle id="abajo_130" type="coche_normal" route="de_abajo_a_arriba" depart="991" color="1,1,0" />
    <vehicle id="izq_131" type="coche_normal" route="de_izquierda_a_derecha" depart="1005" color="1,1,0" />
    <vehicle id="izq_ambulancia_132" type="emergencia" route="de_izquierda_a_derecha" depart="1008" color="1,0,0" />
    <vehicle id="izq_133" type="coche_normal" route="de_izquierda_a_derecha" depart="1018" color="1,1,0" />
    <vehicle id="izq_134" type="coche_normal" route="de_izquierda_a_derecha" depart="1019" color="1,1,0" />
    <vehicle id="izq_ambulancia_135" type="emergencia" route="de_izquierda_a_derecha" depart="1025" color="1,0,0" />
    <vehicle id="izq_136" type="coche_normal" route="de_izquierda_a_derecha" depart="1036" color="1,1,0" />
    <vehicle id="izq_137" type="coche_normal" route="de_izquierda_a_derecha" depart="1038" color="1,1,0" />
    <vehicle id="izq_138" type="coche_normal" route="de_izquierda_a_derecha" depart="1049" color="1,1,0" />
    <vehicle id="izq_139" type="coche_normal" route="de_izquierda_a_derecha" depart="1052" color="1,1,0" />
    <vehicle id="izq_140" type="coche_normal" route="de_izquierda_a_derecha" depart="1065" color="1,1,0" />
    <vehicle id="izq_141" type="coche_normal" route="de_izquierda_a_derecha" depart="1071" color="1,1,0" />
    <vehicle id="izq_142" type="coche_normal" route="de_izquierda_a_derecha" depart="1076" color="1,1,0" />
    <vehicle id="izq_143" type="coche_normal" route="de_izquierda_a_derecha" depart="1081" color="1,1,0" />
    <vehicle id="abajo_144" type="coche_normal" route="de_abajo_a_arriba" depart="1087" color="1,1,0" />
    <vehicle id="izq_145" type="coche_normal" route="de_izquierda_a_derecha" depart="1098" color="1,1,0" />
    <vehicle id="izq_146" type="coche_normal" route="de_izquierda_a_derecha" depart="1113" color="1,1,0" />
    <vehicle id="izq_147" type="coche_normal" route="de_izquierda_a_derecha" depart="1116" color="1,1,0" />
    <vehicle id="izq_148" type="coche_normal" route="de_izquierda_a_derecha" depart="1123" color="1,1,0" />
    <vehicle id="izq_ambulancia_149" type="emergencia" route="de_izquierda_a_derecha" depart="1124" color="1,0,0" />
    <vehicle id="izq_150" type="coche_normal" route="de_izquierda_a_derecha" depart="1133" color="1,1,0" />
    <vehicle id="izq_151" type="coche_normal" route="de_izquierda_a_derecha" depart="1137" color="1,1,0" />
    <vehicle id="izq_152" type="coche_normal" route="de_izquierda_a_derecha" depart="1138" color="1,1,0" />
    <vehicle id="izq_153" type="coche_normal" route="de_izquierda_a_derecha" depart="1154" color="1,1,0" />
    <vehicle id="izq_154" type="coche_normal" route="de_izquierda_a_derecha" depart="1158" color="1,1,0" />
    <vehicle id="abajo_155" type="coche_normal" route="de_abajo_a_arriba" depart="1160" color="1,1,0" />
    <vehicle id="abajo_156" type="coche_normal" route="de_abajo_a_arriba" depart="1176" color="1,1,0" />
    <vehicle id="izq_157" type="coche_normal" route="de_izquierda_a_derecha" depart="1180" color="1,1,0" />
    <vehicle id="izq_158" type="coche_normal" route="de_izquierda_a_derecha" depart="1182" color="1,1,0" />
    <vehicle id="abajo_159" type="coche_normal" route="de_abajo_a_arriba" depart="1182" color="1,1,0" />
    <vehicle id="izq_160" type="coche_normal" route="de_izquierda_a_derecha" depart="1184" color="1,1,0" />
    <vehicle id="izq_161" type="coche_normal" route="de_izquierda_a_derecha" depart="1209" color="1,1,0" />
    <vehicle id="abajo_162" type="coche_normal" route="de_abajo_a_arriba" depart="1209" color="1,1,0" />
    <vehicle id="izq_163" type="coche_normal" route="de_izquierda_a_derecha" depart="1211" color="1,1,0" />
    <vehicle id="izq_ambulancia_164" type="emergencia" route="de_izquierda_a_derecha" depart="1234" color="1,0,0" />
    <vehicle id="izq_ambulancia_165" type="emergencia" route="de_izquierda_a_derecha" depart="1252" color="1,0,0" />
    <vehicle id="izq_166" type="coche_normal" route="de_izquierda_a_derecha" depart="1255" color="1,1,0" />
    <vehicle id="izq_167" type="coche_normal" route="de_izquierda_a_derecha" depart="1258" color="1,1,0" />
    <vehicle id="izq_168" type="coche_normal" route="de_izquierda_a_derecha" depart="1265" color="1,1,0" />
    <vehicle id="izq_169" type="coche_normal" route="de_izquierda_a_derecha" depart="1271" color="1,1,0" />
    <vehicle id="abajo_170" type="coche_normal" route="de_abajo_a_arriba" depart="1275" color="1,1,0" />
    <vehicle id="izq_171" type="coche_normal" route="de_izquierda_a_derecha" depart="1277" color="1,1,0" />
    <vehicle id="izq_172" type="coche_normal" route="de_izquierda_a_derecha" depart="1294" color="1,1,0" />
    <vehicle id="izq_173" type="coche_normal" route="de_izquierda_a_derecha" depart="1304" color="1,1,0" />
    <vehicle id="izq_174" type="coche_normal" route="de_izquierda_a_derecha" depart="1307" color="1,1,0" />
    <vehicle id="izq_175" type="coche_normal" route="de_izquierda_a_derecha" depart="1311" color="1,1,0" />
    <vehicle id="izq_ambulancia_176" type="emergencia" route="de_izquierda_a_derecha" depart="1311" color="1,0,0" />
    <vehicle id="izq_177" type="coche_normal" route="de_izquierda_a_derecha" depart="1313" color="1,1,0" />
    <vehicle id="izq_178" type="coche_normal" route="de_izquierda_a_derecha" depart="1319" color="1,1,0" />
    <vehicle id="izq_179" type="coche_normal" route="de_izquierda_a_derecha" depart="1329" color="1,1,0" />
    <vehicle id="izq_180" type="coche_normal" route="de_izquierda_a_derecha" depart="1330" color="1,1,0" />
    <vehicle id="izq_181" type="coche_normal" route="de_izquierda_a_derecha" depart="1331" color="1,1,0" />
    <vehicle id="izq_182" type="coche_normal" route="de_izquierda_a_derecha" depart="1335" color="1,1,0" />
    <vehicle id="izq_183" type="coche_normal" route="de_izquierda_a_derecha" depart="1337" color="1,1,0" />
    <vehicle id="izq_184" type="coche_normal" route="de_izquierda_a_derecha" depart="1342" color="1,1,0" />
    <vehicle id="izq_185" type="coche_normal" route="de_izquierda_a_derecha" depart="1356" color="1,1,0" />
    <vehicle id="izq_186" type="coche_normal" route="de_izquierda_a_derecha" depart="1358" color="1,1,0" />
    <vehicle id="izq_187" type="coche_normal" route="de_izquierda_a_derecha" depart="1375" color="1,1,0" />
    <vehicle id="izq_188" type="coche_normal" route="de_izquierda_a_derecha" depart="1386" color="1,1,0" />
    <vehicle id="izq_189" type="coche_normal" route="de_izquierda_a_derecha" depart="1399" color="1,1,0" />
    <vehicle id="izq_190" type="coche_normal" route="de_izquierda_a_derecha" depart="1400" color="1,1,0" />
    <vehicle id="abajo_191" type="coche_normal" route="de_abajo_a_arriba" depart="1400" color="1,1,0" />
    <vehicle id="izq_192" type="coche_normal" route="de_izquierda_a_derecha" depart="1401" color="1,1,0" />
    <vehicle id="izq_193" type="coche_normal" route="de_izquierda_a_derecha" depart="1406" color="1,1,0" />
    <vehicle id="izq_194" type="coche_normal" route="de_izquierda_a_derecha" depart="1407" color="1,1,0" />
    <vehicle id="izq_195" type="coche_normal" route="de_izquierda_a_derecha" depart="1430" color="1,1,0" />
    <vehicle id="izq_196" type="coche_normal" route="de_izquierda_a_derecha" depart="1432" color="1,1,0" />
    <vehicle id="izq_197" type="coche_normal" route="de_izquierda_a_derecha" depart="1435" color="1,1,0" />
    <vehicle id="izq_198" type="coche_normal" route="de_izquierda_a_derecha" depart="1440" color="1,1,0" />
    <vehicle id="izq_199" type="coche_normal" route="de_izquierda_a_derecha" depart="1451" color="1,1,0" />
    <vehicle id="izq_200" type="coche_normal" route="de_izquierda_a_derecha" depart="1465" color="1,1,0" />
    <vehicle id="izq_201" type="coche_normal" route="de_izquierda_a_derecha" depart="1490" color="1,1,0" />
    <vehicle id="izq_202" type="coche_normal" route="de_izquierda_a_derecha" depart="1510" color="1,1,0" />
    <vehicle id="izq_203" type="coche_normal" route="de_izquierda_a_derecha" depart="1513" color="1,1,0" />
    <vehicle id="izq_204" type="coche_normal" route="de_izquierda_a_derecha" depart="1515" color="1,1,0" />
    <vehicle id="izq_205" type="coche_normal" route="de_izquierda_a_derecha" depart="1523" color="1,1,0" />
    <vehicle id="abajo_206" type="coche_normal" route="de_abajo_a_arriba" depart="1523" color="1,1,0" />
    <vehicle id="izq_207" type="coche_normal" route="de_izquierda_a_derecha" depart="1536" color="1,1,0" />
    <vehicle id="abajo_208" type="coche_normal" route="de_abajo_a_arriba" depart="1562" color="1,1,0" />
    <vehicle id="izq_209" type="coche_normal" route="de_izquierda_a_derecha" depart="1571" color="1,1,0" />
    <vehicle id="izq_210" type="coche_normal" route="de_izquierda_a_derecha" depart="1572" color="1,1,0" />
    <vehicle id="izq_211" type="coche_normal" route="de_izquierda_a_derecha" depart="1576" color="1,1,0" />
    <vehicle id="izq_212" type="coche_normal" route="de_izquierda_a_derecha" depart="1582" color="1,1,0" />
    <vehicle id="izq_213" type="coche_normal" route="de_izquierda_a_derecha" depart="1586" color="1,1,0" />
    <vehicle id="abajo_214" type="coche_normal" route="de_abajo_a_arriba" depart="1588" color="1,1,0" />
    <vehicle id="izq_215" type="coche_normal" route="de_izquierda_a_derecha" depart="1589" color="1,1,0" />
    <vehicle id="izq_216" type="coche_normal" route="de_izquierda_a_derecha" depart="1637" color="1,1,0" />
    <vehicle id="izq_217" type="coche_normal" route="de_izquierda_a_derecha" depart="1654" color="1,1,0" />
    <vehicle id="izq_218" type="coche_normal" route="de_izquierda_a_derecha" depart="1655" color="1,1,0" />
    <vehicle id="izq_219" type="coche_normal" route="de_izquierda_a_derecha" depart="1657" color="1,1,0" />
    <vehicle id="abajo_220" type="coche_normal" route="de_abajo_a_arriba" depart="1658" color="1,1,0" />
    <vehicle id="izq_221" type="coche_normal" route="de_izquierda_a_derecha" depart="1661" color="1,1,0" />
    <vehicle id="izq_222" type="coche_normal" route="de_izquierda_a_derecha" depart="1662" color="1,1,0" />
    <vehicle id="izq_223" type="coche_normal" route="de_izquierda_a_derecha" depart="1688" color="1,1,0" />
    <vehicle id="abajo_224" type="coche_normal" route="de_abajo_a_arriba" depart="1688" color="1,1,0" />
    <vehicle id="izq_225" type="coche_normal" route="de_izquierda_a_derecha" depart="1710" color="1,1,0" />
    <vehicle id="izq_226" type="coche_normal" route="de_izquierda_a_derecha" depart="1712" color="1,1,0" />
    <vehicle id="izq_227" type="coche_normal" route="de_izquierda_a_derecha" depart="1714" color="1,1,0" />
    <vehicle id="izq_228" type="coche_normal" route="de_izquierda_a_derecha" depart="1721" color="1,1,0" />
    <vehicle id="izq_229" type="coche_normal" route="de_izquierda_a_derecha" depart="1724" color="1,1,0" />
    <vehicle id="izq_230" type="coche_normal" route="de_izquierda_a_derecha" depart="1728" color="1,1,0" />
    <vehicle id="abajo_231" type="coche_normal" route="de_abajo_a_arriba" depart="1728" color="1,1,0" />
    <vehicle id="abajo_232" type="coche_normal" route="de_abajo_a_arriba" depart="1734" color="1,1,0" />
    <vehicle id="izq_233" type="coche_normal" route="de_izquierda_a_derecha" depart="1751" color="1,1,0" />
    <vehicle id="izq_234" type="coche_normal" route="de_izquierda_a_derecha" depart="1752" color="1,1,0" />
    <vehicle id="izq_235" type="coche_normal" route="de_izquierda_a_derecha" depart="1774" color="1,1,0" />
    <vehicle id="izq_236" type="coche_normal" route="de_izquierda_a_derecha" depart="1776" color="1,1,0" />
    <vehicle id="izq_237" type="coche_normal" route="de_izquierda_a_derecha" depart="1783" color="1,1,0" />
    <vehicle id="izq_238" type="coche_normal" route="de_izquierda_a_derecha" depart="1787" color="1,1,0" />
    <vehicle id="abajo_239" type="coche_normal" route="de_abajo_a_arriba" depart="1793" color="1,1,0" />
    <vehicle id="izq_240" type="coche_normal" route="de_izquierda_a_derecha" depart="1803" color="1,1,0" />
    <vehicle id="abajo_241" type="coche_normal" route="de_abajo_a_arriba" depart="1809" color="1,1,0" />
    <vehicle id="izq_242" type="coche_normal" route="de_izquierda_a_derecha" depart="1822" color="1,1,0" />
    <vehicle id="abajo_243" type="coche_normal" route="de_abajo_a_arriba" depart="1825" color="1,1,0" />
    <vehicle id="izq_244" type="coche_normal" route="de_izquierda_a_derecha" depart="1826" color="1,1,0" />
    <vehicle id="izq_245" type="coche_normal" route="de_izquierda_a_derecha" depart="1834" color="1,1,0" />
    <vehicle id="izq_246" type="coche_normal" route="de_izquierda_a_derecha" depart="1842" color="1,1,0" />
    <vehicle id="izq_247" type="coche_normal" route="de_izquierda_a_derecha" depart="1854" color="1,1,0" />
    <vehicle id="abajo_248" type="coche_normal" route="de_abajo_a_arriba" depart="1854" color="1,1,0" />
    <vehicle id="izq_249" type="coche_normal" route="de_izquierda_a_derecha" depart="1858" color="1,1,0" />
    <vehicle id="izq_250" type="coche_normal" route="de_izquierda_a_derecha" depart="1872" color="1,1,0" />
    <vehicle id="izq_ambulancia_251" type="emergencia" route="de_izquierda_a_derecha" depart="1889" color="1,0,0" />
    <vehicle id="abajo_252" type="coche_normal" route="de_abajo_a_arriba" depart="1897" color="1,1,0" />
    <vehicle id="izq_253" type="coche_normal" route="de_izquierda_a_derecha" depart="1900" color="1,1,0" />
    <vehicle id="izq_254" type="coche_normal" route="de_izquierda_a_derecha" depart="1908" color="1,1,0" />
    <vehicle id="izq_255" type="coche_normal" route="de_izquierda_a_derecha" depart="1928" color="1,1,0" />
    <vehicle id="abajo_256" type="coche_normal" route="de_abajo_a_arriba" depart="1931" color="1,1,0" />
    <vehicle id="izq_257" type="coche_normal" route="de_izquierda_a_derecha" depart="1937" color="1,1,0" />
    <vehicle id="izq_ambulancia_258" type="emergencia" route="de_izquierda_a_derecha" depart="1937" color="1,0,0" />
    <vehicle id="izq_ambulancia_259" type="emergencia" route="de_izquierda_a_derecha" depart="1964" color="1,0,0" />
    <vehicle id="izq_260" type="coche_normal" route="de_izquierda_a_derecha" depart="1966" color="1,1,0" />
    <vehicle id="izq_261" type="coche_normal" route="de_izquierda_a_derecha" depart="1976" color="1,1,0" />
    <vehicle id="abajo_262" type="coche_normal" route="de_abajo_a_arriba" depart="1995" color="1,1,0" />
    <vehicle id="izq_ambulancia_263" type="emergencia" route="de_izquierda_a_derecha" depart="2004" color="1,0,0" />
    <vehicle id="izq_264" type="coche_normal" route="de_izquierda_a_derecha" depart="2005" color="1,1,0" />
    <vehicle id="abajo_265" type="coche_normal" route="de_abajo_a_arriba" depart="2005" color="1,1,0" />
    <vehicle id="izq_266" type="coche_normal" route="de_izquierda_a_derecha" depart="2015" color="1,1,0" />
    <vehicle id="izq_267" type="coche_normal" route="de_izquierda_a_derecha" depart="2035" color="1,1,0" />
    <vehicle id="izq_268" type="coche_normal" route="de_izquierda_a_derecha" depart="2058" color="1,1,0" />
    <vehicle id="izq_269" type="coche_normal" route="de_izquierda_a_derecha" depart="2064" color="1,1,0" />
    <vehicle id="izq_270" type="coche_normal" route="de_izquierda_a_derecha" depart="2065" color="1,1,0" />
    <vehicle id="izq_271" type="coche_normal" route="de_izquierda_a_derecha" depart="2068" color="1,1,0" />
    <vehicle id="izq_272" type="coche_normal" route="de_izquierda_a_derecha" depart="2077" color="1,1,0" />
    <vehicle id="izq_273" type="coche_normal" route="de_izquierda_a_derecha" depart="2086" color="1,1,0" />
    <vehicle id="abajo_274" type="coche_normal" route="de_abajo_a_arriba" depart="2092" color="1,1,0" />